outputs/tables/bus_results.csv
Bus,Voltage_pu,Angle_deg,P_pu,Q_pu
1,1.04,0.0,0.7164101221284641,0.27045892288942386
2,1.0250000000000001,9.280007844331584,1.6300000277667277,0.06653620705352452
3,1.025,4.6647533665773135,0.8500000103379005,-0.10859733267894091
4,1.0257884099373211,-2.2167874762658797,-8.450938198024995e-08,5.6065098104305474e-08
5,0.9956308922495553,-3.9888044417935347,-1.250000089564794,-0.49999972258922365
6,1.0126543462410733,-3.68739548919959,-0.9000000777901167,-0.2999998764479622
7,1.0257693965911665,3.71970355391134,3.421320816054545e-07,3.279119145646432e-07
8,1.0158826062268091,0.7275379733749937,-1.0000001844888255,-0.3499999194971783
9,1.032352962848402,1.9667181112643317,1.6314152594935865e-07,7.991167834736685e-08
